    18
    E = -4.602086430e+01 (kcal/mol)
    O   -1.501133590e+00  -1.973467100e-01   1.441262950e+00
    H   -2.000985830e+00  -3.880940000e-01   2.232286820e+00
    H   -6.130182100e-01  -6.045016400e-01   1.565741520e+00
    O   -1.738921070e+00  -3.566716500e-01  -1.311647220e+00
    H   -2.485655290e+00  -7.566635700e-01  -1.757003500e+00
    H   -1.883593590e+00  -4.958262000e-01  -3.594679700e-01
    O   -5.900491100e-01   2.045369740e+00  -1.139971100e-01
    H   -1.009913650e+00   1.627267800e+00  -8.732886700e-01
    H   -9.614419100e-01   1.549440890e+00   6.291669800e-01
    O    9.999999100e-01  -1.179514770e+00   1.454043080e+00
    H    1.550433810e+00  -3.959168300e-01   1.334139300e+00
    H    1.004009200e+00  -1.558530670e+00   5.592624600e-01
    O    9.829462100e-01  -1.411538550e+00  -1.350690300e+00
    H    1.478885410e+00  -5.856945200e-01  -1.278498130e+00
    H    7.624997000e-02  -1.127406420e+00  -1.530339410e+00
    O    1.967206930e+00   1.048112740e+00  -1.378723900e-01
    H    2.659992820e+00   1.698771500e+00  -2.392144000e-01
    H    1.124990980e+00   1.547180090e+00  -1.466355100e-01
