    18
    E = -4.379209587e+01 (kcal/mol)
    O    9.296196300e-03   6.682868392e-01   2.134173580e+00
    H   -8.310473241e-01   1.005572883e+00   1.809901963e+00
    H    6.496994007e-01   1.083078317e+00   1.541113926e+00
    O    1.354565218e+00   1.567362380e+00  -2.891715923e-01
    H    2.042452466e+00   2.192238787e+00  -5.124590628e-01
    H    1.661850135e+00   6.928305686e-01  -6.065356577e-01
    O   -1.421746716e+00   1.546753684e+00  -4.042695145e-01
    H   -1.859237774e+00   2.303928477e+00  -7.930726423e-01
    H   -4.695176482e-01   1.687836728e+00  -5.411874078e-01
    O    1.856728290e+00  -9.848450606e-01  -1.030775551e+00
    H    1.258909049e+00  -1.412561666e+00  -3.801022241e-01
    H    2.678565752e+00  -1.469911368e+00  -9.866078116e-01
    O   -2.128486534e+00  -1.152717492e+00  -8.970533556e-01
    H   -1.955094262e+00  -2.002787023e-01  -8.412761869e-01
    H   -1.976744716e+00  -1.378802434e+00  -1.815524680e+00
    O    6.447412966e-02  -1.868877408e+00   7.838346493e-01
    H   -7.578199047e-01  -1.794186141e+00   2.767740697e-01
    H    2.752258857e-02  -1.134041476e+00   1.415773561e+00
