    18
    E = -4.321819357e+01 (kcal/mol)
    O   -3.891860920e-01  -1.924533445e+00  -1.641861152e-01
    H    5.716569945e-01  -1.771136336e+00  -1.720054930e-01
    H   -7.294708457e-01  -1.487244994e+00  -9.499315034e-01
    O   -2.148097783e+00   2.082905140e-01  -1.323179790e+00
    H   -2.942437107e+00   2.558514289e-01  -1.855774121e+00
    H   -2.449831550e+00   6.907425425e-02  -4.135488152e-01
    O   -1.768114883e+00  -2.426450863e-01   1.415911439e+00
    H   -1.215603559e+00  -9.616830819e-01   1.041388124e+00
    H   -2.079784942e+00  -5.513261576e-01   2.264808762e+00
    O    2.334353275e+00  -1.359029921e+00  -7.370481845e-02
    H    2.928183591e+00  -1.663722423e+00  -7.586490125e-01
    H    2.441774050e+00  -3.921729790e-01  -5.329925142e-02
    O    2.388541217e+00   1.401174734e+00  -4.469408380e-02
    H    2.869416513e+00   1.929595980e+00   5.900231680e-01
    H    1.453492668e+00   1.656139528e+00   5.663097149e-02
    O   -3.094685111e-01   1.910700151e+00   2.052990525e-01
    H   -7.906743901e-01   1.696630320e+00  -6.004688193e-01
    H   -7.091765958e-01   1.319958182e+00   8.586515079e-01
