    18
    E = -4.200883025e+01 (kcal/mol)
    O    1.636746651e+00   8.555150777e-01  -1.067700854e+00
    H    1.103086268e+00   4.953422876e-02  -9.921834737e-01
    H    2.421286882e+00   6.294122152e-01  -5.604442256e-01
    O    1.411346559e-01  -1.364397978e+00  -4.932826245e-02
    H   -5.267748331e-01  -1.834129052e+00  -5.571486412e-01
    H   -3.868007178e-01  -7.690038023e-01   5.066902150e-01
    O   -1.660861710e+00   5.404083891e-01   1.041911881e+00
    H   -1.208606883e+00   1.342760377e+00   7.124245162e-01
    H   -1.805611846e+00   6.844051586e-01   1.976416000e+00
    O    2.804350543e+00  -1.016164066e+00   7.708484327e-01
    H    3.370471904e+00  -1.711392730e+00   1.102931955e+00
    H    1.949429323e+00  -1.435022789e+00   5.965259770e-01
    O   -2.606082701e+00  -1.456250138e+00  -7.326872273e-01
    H   -3.446323571e+00  -1.428636211e+00  -1.190320786e+00
    H   -2.586780688e+00  -6.719604572e-01  -1.678586243e-01
    O   -1.765988920e-01   2.577022593e+00   3.255832980e-02
    H   -4.767879059e-01   3.197011959e+00  -6.300129825e-01
    H    5.510141727e-01   2.076177126e+00  -3.840759915e-01
