    18
    E = -4.155680202e+01 (kcal/mol)
    O    1.393811719e+00  -2.065357907e+00  -7.794474970e-01
    H    9.963043239e-01  -1.968869226e+00  -1.645890333e+00
    H    1.829263367e+00  -1.214120012e+00  -6.023282841e-01
    O   -1.757500701e+00   1.974441606e+00  -3.827908784e-01
    H   -2.002886134e+00   1.033176627e+00  -4.062121596e-01
    H   -1.897684230e+00   2.292005461e+00  -1.274685765e+00
    O    7.983050335e-01   2.374989551e+00   5.719788832e-01
    H    7.145569195e-01   2.700811745e+00   1.467413227e+00
    H   -1.137792088e-01   2.246152934e+00   2.578899410e-01
    O   -2.357932641e+00  -7.192315549e-01  -4.208833999e-01
    H   -1.788767429e+00  -1.242661068e+00   1.716860115e-01
    H   -3.245764195e+00  -1.036356962e+00  -2.597641219e-01
    O   -6.184202859e-01  -2.202824301e+00   1.107463835e+00
    H    1.432827538e-01  -2.228205186e+00   5.011662931e-01
    H   -2.647650227e-01  -1.914370991e+00   1.948859011e+00
    O    2.549766317e+00   3.272906244e-01  -2.527611237e-02
    H    3.301236727e+00   7.398165513e-01  -4.502628822e-01
    H    1.943744194e+00   1.057897559e+00   1.870257667e-01
