    18
    E = -4.488316768e+01 (kcal/mol)
    O   -9.657570471e-01  -1.348416529e+00  -2.983250018e-01
    H   -1.612194458e+00  -8.888309215e-01   2.586787485e-01
    H   -1.071696915e+00  -1.009240653e+00  -1.200038273e+00
    O    1.384281200e+00  -4.008313910e-01   4.943564393e-01
    H    5.379630257e-01  -8.303734144e-01   2.160353872e-01
    H    1.961022636e+00  -1.115334277e+00   7.651626039e-01
    O    1.834757985e+00   6.150031330e-01  -2.103915053e+00
    H    1.805975533e+00   3.363998303e-01  -1.174755274e+00
    H    2.024233523e+00   1.552700490e+00  -2.083208935e+00
    O   -2.380253088e+00   1.096216191e-01   1.640472932e+00
    H   -1.596484147e+00   4.715659007e-01   2.084873658e+00
    H   -2.874112893e+00  -3.365125905e-01   2.328387322e+00
    O   -7.075750373e-01  -2.631292403e-01  -2.875321009e+00
    H    1.939479649e-01   7.547541927e-02  -2.751292803e+00
    H   -6.581992020e-01  -8.299483688e-01  -3.645025966e+00
    O    9.941769765e-02   9.931580042e-01   2.589828954e+00
    H    6.642031731e-01   5.847112916e-01   1.914574700e+00
    H    3.093979613e-01   1.926431832e+00   2.567414971e+00
